Version 4
SHEET 1 880 680
WIRE -144 64 -224 64
WIRE 16 64 -64 64
WIRE 16 96 16 64
WIRE 16 128 16 96
WIRE -224 176 -224 64
WIRE -224 176 -368 176
WIRE -144 176 -224 176
WIRE -368 208 -368 176
WIRE -224 224 -224 176
WIRE 16 240 16 208
WIRE 16 272 16 240
WIRE -32 288 -96 288
WIRE -144 336 -144 176
WIRE -32 336 -144 336
WIRE -224 368 -224 304
WIRE -96 368 -96 288
WIRE -96 368 -224 368
WIRE -368 400 -368 288
WIRE -224 400 -224 368
WIRE 16 400 16 352
FLAG 16 400 0
FLAG -224 400 0
FLAG -368 400 0
FLAG -224 176 Vp
FLAG -224 368 Vn
FLAG 16 240 Voc
FLAG 16 96 Vo
SYMBOL e 16 256 R0
SYMATTR InstName E1
SYMATTR Value 100
SYMBOL res 32 224 R180
WINDOW 0 36 76 Left 2
WINDOW 3 36 40 Left 2
SYMATTR InstName Ro
SYMATTR Value 200k
SYMBOL res -240 208 R0
SYMATTR InstName Rid
SYMATTR Value 10k
SYMBOL res -48 48 R90
WINDOW 0 0 56 VBottom 2
WINDOW 3 32 56 VTop 2
SYMATTR InstName RF
SYMATTR Value 5k
SYMBOL current -368 288 R180
WINDOW 0 24 80 Left 2
WINDOW 3 24 0 Left 2
SYMATTR InstName Is
