* C:\Users\Syouq\AppData\Local\Temp\tmpk4_8e_m_
E1 Voc 0 0 Vp 100
Ro Vo Voc 200k
Rid Vp 0 10k
RF Vo Vp 5k
Is 0 Vp I
.backanno
.end