Version 4
SHEET 1 880 680
WIRE -96 96 -224 96
WIRE 160 96 -16 96
WIRE -224 176 -224 96
WIRE -224 176 -336 176
WIRE -144 176 -224 176
WIRE 48 176 16 176
WIRE 160 176 160 96
WIRE 160 176 128 176
WIRE -336 208 -336 176
WIRE -224 208 -224 176
WIRE 16 208 16 176
WIRE -32 224 -96 224
WIRE -144 272 -144 176
WIRE -32 272 -144 272
WIRE -224 320 -224 288
WIRE -96 320 -96 224
WIRE -96 320 -224 320
WIRE -336 352 -336 288
WIRE -224 352 -224 320
WIRE 16 352 16 288
FLAG 16 352 0
FLAG -224 352 0
FLAG -336 352 0
FLAG 160 176 Vo
FLAG -224 176 Vp
FLAG -224 320 Vn
FLAG 16 176 Voc
SYMBOL e 16 192 R0
SYMATTR InstName E1
SYMATTR Value 100
SYMBOL res 144 160 R90
WINDOW 0 0 56 VBottom 2
WINDOW 3 32 56 VTop 2
SYMATTR InstName Ro
SYMATTR Value 200k
SYMBOL res -240 192 R0
SYMATTR InstName Rid
SYMATTR Value 10k
SYMBOL res 0 80 R90
WINDOW 0 0 56 VBottom 2
WINDOW 3 32 56 VTop 2
SYMATTR InstName RF
SYMATTR Value 5k
SYMBOL current -336 288 R180
WINDOW 0 24 80 Left 2
WINDOW 3 24 0 Left 2
SYMATTR InstName Is
